ckt7_Mon_rfi_13_der050.csv
fault_bus,fault_type,fault_R_ohm,Va_mag_pu,Va_ang_deg,Vb_mag_pu,Vb_ang_deg,Vc_mag_pu,Vc_ang_deg,Ia_mag_A,Ia_ang_deg,Ib_mag_A,Ib_ang_deg,Ic_mag_A,Ic_ang_deg
318412,SLG,0,0.442476,-81.0003,1.390546,-131.7112,1.010501,100.6847,744.0085,82.6544,1257.3159,32.2473,870.3613,-97.4507
318412,SLG,10,1.2285,-20.5782,1.227924,-140.1889,1.221622,99.3933,1054.2281,144.0722,1045.3021,24.5304,1042.5182,-96.015
318412,SLG,20,1.228409,-20.5569,1.227998,-140.1922,1.221646,99.398,1054.1174,144.0934,1045.3837,24.5256,1042.5519,-96.0087
318412,SLG,30,1.228378,-20.5497,1.228023,-140.1933,1.221654,99.3995,1054.0805,144.1005,1045.4109,24.524,1042.5632,-96.0066
318412,SLG,40,1.228363,-20.5462,1.228035,-140.1938,1.221658,99.4003,1054.062,144.104,1045.4245,24.5232,1042.5688,-96.0055
318412,LL,0,0.386313,-109.9745,0.273356,-158.6922,1.111023,106.7391,634.906,50.5917,471.785,10.7744,929.0658,-88.7404
318412,LL,10,1.228452,-20.5877,1.228106,-140.2318,1.221472,99.4,1054.1592,144.0596,1045.5225,24.4877,1042.3519,-96.0054
318412,LL,20,1.228385,-20.5616,1.22809,-140.2136,1.22157,99.4013,1054.083,144.0871,1045.494,24.5043,1042.4688,-96.0039
318412,LL,30,1.228362,-20.5529,1.228084,-140.2076,1.221603,99.4018,1054.0575,144.0963,1045.4845,24.5098,1042.5077,-96.0034
318412,LL,40,1.228351,-20.5485,1.228081,-140.2045,1.22162,99.402,1054.0448,144.1008,1045.4797,24.5126,1042.5272,-96.0031
318412,3LG,0,0.169366,-95.0171,0.169218,145.1997,0.16876,24.7773,236.9476,68.9474,235.2048,-50.8691,235.2934,-171.381
318412,3LG,10,1.228303,-20.5811,1.228059,-140.2411,1.221655,99.357,1053.9946,144.069,1045.4535,24.4752,1042.5738,-96.048
318412,3LG,20,1.22831,-20.5583,1.228066,-140.2183,1.221662,99.3798,1054.0007,144.0918,1045.4595,24.498,1042.5798,-96.0252
318412,3LG,30,1.228312,-20.5507,1.228068,-140.2107,1.221665,99.3874,1054.0027,144.0994,1045.4615,24.5056,1042.5818,-96.0176
318412,3LG,40,1.228314,-20.5469,1.228069,-140.2069,1.221666,99.3912,1054.0037,144.1032,1045.4625,24.5094,1042.5827,-96.0138
243937,SLG,0,0.637978,-96.7716,1.866712,-158.0422,1.630939,126.052,941.782,61.9667,1753.8606,7.3883,1332.0522,-66.0892
243937,SLG,10,1.222471,-20.8638,1.233212,-140.2914,1.220876,99.6588,1049.2895,143.7163,1050.8216,24.4731,1040.6437,-95.7244
243937,SLG,20,1.225385,-20.6999,1.230651,-140.2435,1.221264,99.5311,1051.6394,143.9151,1048.1524,24.4971,1041.605,-95.8631
243937,SLG,30,1.22636,-20.6452,1.229794,-140.2275,1.221398,99.4883,1052.4265,143.9815,1047.2587,24.505,1041.9297,-95.9095
243937,SLG,40,1.226848,-20.6178,1.229364,-140.2195,1.221465,99.4669,1052.8208,144.0148,1046.8112,24.509,1042.0929,-95.9327
243937,LL,0,0.327536,-129.0646,0.324589,-141.8841,1.64115,103.196,597.6157,29.7651,597.5258,20.025,1404.772,-92.101
243937,LL,10,1.221676,-20.6094,1.227318,-140.6179,1.225977,99.5626,1047.3433,143.9918,1046.0758,24.0766,1045.9705,-95.7718
243937,LL,20,1.224978,-20.5724,1.227697,-140.4076,1.223832,99.4833,1050.6566,144.0532,1045.7759,24.2977,1044.2826,-95.8862
243937,LL,30,1.226086,-20.5601,1.227823,-140.3371,1.223113,99.4566,1051.7689,144.0737,1045.6734,24.3718,1043.7181,-95.9247
243937,LL,40,1.226643,-20.5539,1.227886,-140.3018,1.222753,99.4432,1052.3268,144.0839,1045.6219,24.409,1043.4354,-95.944
243937,3LG,0,0.041897,-78.516,0.041862,161.6867,0.041753,41.283,58.602,85.442,58.177,-34.3863,58.2004,-154.8764
243937,3LG,10,1.226766,-20.7037,1.226523,-140.3641,1.220134,99.2343,1052.6748,143.9464,1044.1466,24.3522,1041.2756,-96.1707
243937,3LG,20,1.227542,-20.6197,1.227298,-140.2798,1.220902,99.3184,1053.3414,144.0304,1044.8067,24.4364,1041.9314,-96.0866
243937,3LG,30,1.227801,-20.5916,1.227557,-140.2517,1.221158,99.3465,1053.5633,144.0585,1045.0264,24.4646,1042.1496,-96.0586
243937,3LG,40,1.22793,-20.5776,1.227686,-140.2377,1.221286,99.3605,1053.6742,144.0725,1045.1362,24.4786,1042.2587,-96.0445
157347,SLG,0,0.561638,-35.943,1.509284,-152.329,1.431979,113.2029,805.8565,119.2362,1377.4324,10.4532,1202.7937,-82.674
157347,SLG,10,1.223327,-21.1947,1.234956,-140.1434,1.217255,99.6548,1050.9353,143.376,1052.0327,24.669,1036.9352,-95.7664
157347,SLG,20,1.225841,-20.8672,1.23153,-140.168,1.219426,99.5284,1052.4917,143.743,1048.7572,24.597,1039.7253,-95.8852
157347,SLG,30,1.22667,-20.7571,1.230381,-140.1768,1.220165,99.4864,1053.0014,143.8664,1047.6616,24.572,1040.6709,-95.9244
157347,SLG,40,1.227084,-20.7019,1.229805,-140.1814,1.220538,99.4655,1053.2545,143.9283,1047.1132,24.5594,1041.1467,-95.944
157347,LL,0,0.53161,-26.019,0.607502,-149.5419,1.501626,100.0535,679.466,134.7821,908.1827,12.3732,1313.0587,-96.8491
157347,LL,10,1.218938,-20.9444,1.229806,-140.8024,1.224125,99.7061,1045.2842,143.6091,1048.8078,23.9292,1043.4997,-95.6174
157347,LL,20,1.223599,-20.7424,1.229002,-140.5002,1.222871,99.5565,1049.6231,143.859,1047.1979,24.2241,1043.0052,-95.8078
157347,LL,30,1.225165,-20.674,1.228706,-140.3989,1.222465,99.5057,1051.0794,143.9436,1046.6342,24.3228,1042.8568,-95.8722
157347,LL,40,1.225951,-20.6396,1.228553,-140.3481,1.222263,99.4801,1051.8093,143.9861,1046.3472,24.3723,1042.7857,-95.9046
157347,3LG,0,0.579609,-25.8009,0.579054,-145.5952,0.577398,93.9763,807.5607,138.1864,800.8302,18.3592,801.1498,-102.1637
157347,3LG,10,1.225701,-20.8928,1.225472,-140.5533,1.219081,99.0456,1051.7611,143.7572,1043.2534,24.163,1040.376,-96.3593
157347,3LG,20,1.227019,-20.7147,1.226782,-140.3749,1.220385,99.2236,1052.8921,143.9353,1044.3677,24.3413,1041.489,-96.1814
157347,3LG,30,1.227454,-20.6551,1.227214,-140.3152,1.220815,99.2831,1053.2655,143.995,1044.7355,24.4011,1041.8564,-96.1219
157347,3LG,40,1.22767,-20.6253,1.22743,-140.2853,1.221029,99.313,1053.4514,144.0248,1044.9187,24.4309,1042.0394,-96.092
298162,SLG,0,0.428838,-90.7363,1.703664,-148.6015,1.315761,121.1343,825.3293,69.6916,1581.7579,16.2616,1046.6299,-72.2476
298162,SLG,10,1.22394,-22.2436,1.240791,-139.7556,1.207112,99.6932,1054.1156,142.2858,1056.5281,25.2029,1026.2119,-95.8295
298162,SLG,20,1.226226,-21.3948,1.234399,-139.969,1.214299,99.5433,1054.1554,143.1944,1050.9289,24.8699,1034.3246,-95.9222
298162,SLG,30,1.226945,-21.1095,1.232282,-140.043,1.216736,99.4954,1054.1271,143.4999,1049.0917,24.7553,1037.0621,-95.9504
298162,SLG,40,1.227297,-20.9665,1.231227,-140.0806,1.217961,99.4718,1054.105,143.6531,1048.179,24.6974,1038.437,-95.9639
298162,LL,0,0.273008,-140.0131,0.272127,-142.6713,1.518018,105.3048,527.5356,20.385,525.2722,18.4755,1303.7936,-89.5871
298162,LL,10,1.20941,-21.9664,1.235811,-141.4673,1.219924,100.1386,1037.7224,142.4387,1055.9659,23.3632,1037.3449,-95.1325
298162,LL,20,1.218848,-21.2585,1.232144,-140.831,1.220619,99.7733,1045.8615,143.2688,1050.8997,23.944,1039.7639,-95.5669
298162,LL,30,1.222001,-21.0192,1.230832,-140.619,1.220928,99.6503,1048.5766,143.549,1049.1293,24.1368,1040.659,-95.712
298162,LL,40,1.223579,-20.8989,1.230159,-140.5131,1.221098,99.5886,1049.9342,143.6897,1048.2287,24.233,1041.1235,-95.7846
298162,3LG,0,0.007441,-87.6779,0.007437,152.5028,0.007414,32.1683,10.4086,76.2747,10.3366,-43.5615,10.3337,-163.9852
298162,3LG,10,1.221693,-21.5246,1.221544,-141.1847,1.215111,98.417,1048.3237,143.1249,1039.9161,23.5319,1036.979,-96.9878
298162,3LG,20,1.225042,-21.0314,1.224846,-140.6914,1.218426,98.9085,1051.1969,143.6184,1042.7226,24.0251,1039.8128,-96.4964
298162,3LG,30,1.226142,-20.8664,1.22593,-140.5264,1.219515,99.073,1052.1406,143.7835,1043.644,24.19,1040.7439,-96.332
298162,3LG,40,1.226689,-20.7838,1.226468,-140.4438,1.220057,99.1553,1052.6098,143.8662,1044.102,24.2726,1041.2069,-96.2497
165448,SLG,0,0.421871,-90.9357,1.709982,-148.378,1.308998,121.4054,816.5945,69.5412,1587.8023,16.4782,1040.6306,-71.9117
165448,SLG,10,1.224284,-22.3758,1.241455,-139.6978,1.205702,99.6903,1054.772,142.1507,1056.9944,25.2794,1024.765,-95.8477
165448,SLG,20,1.22642,-21.4615,1.234717,-139.9391,1.213585,99.5409,1054.5036,143.1263,1051.1423,24.9093,1033.596,-95.9325
165448,SLG,30,1.227079,-21.1541,1.232491,-140.0228,1.216258,99.4935,1054.3638,143.4543,1049.2294,24.7818,1036.5754,-95.9575
165448,SLG,40,1.227399,-20.9999,1.231382,-140.0654,1.217602,99.4703,1054.2842,143.6189,1048.2805,24.7174,1038.0716,-95.9693
165448,LL,0,0.269911,-140.7227,0.269166,-143.2133,1.519098,105.5013,524.6112,19.7379,522.4712,17.9609,1305.3927,-89.3539
165448,LL,10,1.208346,-22.1034,1.236745,-141.5434,1.219204,100.1952,1036.9343,142.2827,1057.0017,23.3016,1036.3818,-95.0707
165448,LL,20,1.218327,-21.3282,1.232638,-140.8683,1.220226,99.8014,1045.4793,143.1897,1051.4396,23.9142,1039.2483,-95.5367
165448,LL,30,1.221657,-21.0659,1.231167,-140.6438,1.220659,99.6689,1048.3246,143.496,1049.494,24.1172,1040.3076,-95.692
165448,LL,40,1.223322,-20.934,1.230413,-140.5316,1.220893,99.6025,1049.7463,143.6499,1048.504,24.2184,1040.8571,-95.7697
165448,3LG,0,0.006893,-88.0666,0.006889,152.1119,0.006868,31.7845,9.6417,75.8853,9.5754,-43.9516,9.5721,-164.3683
165448,3LG,10,1.221245,-21.6038,1.22111,-141.2637,1.214665,98.3385,1047.94,143.0457,1039.548,23.453,1036.5972,-97.0662
165448,3LG,20,1.224825,-21.0712,1.224635,-140.7311,1.218209,98.8691,1051.0107,143.5786,1042.544,23.9854,1039.6271,-96.5358
165448,3LG,30,1.225998,-20.893,1.225791,-140.5529,1.219372,99.0466,1052.0177,143.7569,1043.5262,24.1636,1040.6213,-96.3584
165448,3LG,40,1.226582,-20.8037,1.226365,-140.4636,1.21995,99.1355,1052.5181,143.8462,1044.0141,24.2528,1041.1154,-96.2695
165449,SLG,0,0.357566,-95.7662,1.765045,-148.2214,1.304795,123.7949,741.7933,65.2136,1645.5548,16.5926,1039.6078,-68.7685
165449,SLG,10,1.229297,-23.7158,1.248636,-139.0994,1.190906,99.6668,1062.8617,140.7898,1062.0672,26.0713,1009.6564,-96.035
165449,SLG,20,1.229253,-22.1361,1.23805,-139.6264,1.206108,99.5143,1058.8432,142.4407,1053.3435,25.3195,1026.0195,-96.0433
165449,SLG,30,1.229042,-21.6048,1.234652,-139.8115,1.211258,99.4725,1057.3229,142.9962,1050.6189,25.0583,1031.5223,-96.0351
165449,SLG,40,1.228899,-21.3383,1.232979,-139.9058,1.213847,99.4533,1056.5284,143.2749,1049.2928,24.9258,1034.2814,-96.0289
165449,LL,0,0.23626,-148.9919,0.236269,-150.6552,1.552041,106.3826,492.6417,12.0407,491.2803,10.9414,1342.702,-88.1497
165449,LL,10,1.198498,-23.4932,1.248094,-142.3115,1.211979,100.8038,1029.9059,140.6945,1069.1392,22.686,1026.5739,-94.4064
165449,LL,20,1.213653,-22.0371,1.238618,-141.2392,1.216132,100.0984,1042.2154,142.3827,1057.7386,23.624,1033.8665,-95.2198
165449,LL,30,1.218602,-21.5416,1.235219,-140.8878,1.217823,99.865,1046.2083,142.9553,1053.7402,23.9278,1036.6151,-95.4846
165449,LL,40,1.221054,-21.2919,1.233475,-140.7134,1.218726,99.7488,1048.182,143.2433,1051.7056,24.078,1038.0488,-95.6156
165449,3LG,0,0.004001,-92.6444,0.004001,147.5014,0.003988,27.2568,5.5972,71.2984,5.5621,-48.5554,5.557,-168.8874
165449,3LG,10,1.218065,-22.3904,1.21814,-142.0466,1.211495,97.5617,1045.2225,142.2578,1037.0345,22.6712,1033.8656,-97.843
165449,3LG,20,1.223333,-21.4669,1.223248,-141.1246,1.216715,98.4784,1049.7372,143.1822,1041.3699,23.5925,1038.3388,-96.9265
165449,3LG,30,1.225026,-21.1573,1.224888,-140.8157,1.218397,98.7856,1051.1879,143.4922,1042.762,23.9012,1039.7799,-96.6193
165449,3LG,40,1.225861,-21.0022,1.225696,-140.6609,1.219226,98.9396,1051.903,143.6475,1043.448,24.0558,1040.491,-96.4654
287274,SLG,0,0.367321,-83.6031,1.762015,-146.6247,1.255989,123.6804,732.6373,74.8959,1632.8777,18.0541,996.9815,-69.3943
287274,SLG,10,1.226739,-24.6328,1.254242,-138.7001,1.180575,99.6793,1063.0986,139.8396,1066.6516,26.603,998.8751,-96.1149
287274,SLG,20,1.228342,-22.6061,1.240605,-139.4096,1.200791,99.5042,1059.3114,141.9541,1055.3005,25.6048,1020.5306,-96.103
287274,SLG,30,1.22852,-21.9206,1.236293,-139.6632,1.207684,99.4621,1057.7154,142.6693,1051.8414,25.2526,1027.8458,-96.0793
287274,SLG,40,1.22854,-21.576,1.234186,-139.7932,1.211156,99.4441,1056.8532,143.0288,1050.1778,25.0731,1031.5183,-96.0637
287274,LL,0,0.205486,-112.1481,0.294935,-164.7525,1.543574,106.8173,410.0895,36.1394,563.3565,0.9458,1336.5328,-87.9369
287274,LL,10,1.185548,-24.4243,1.250281,-142.8573,1.20774,101.2546,1019.347,139.6197,1072.9773,22.2241,1020.7124,-93.8872
287274,LL,20,1.207392,-22.525,1.240071,-141.502,1.213453,100.318,1037.1672,141.8242,1059.9417,23.408,1030.3607,-94.974
287274,LL,30,1.214484,-21.8716,1.236262,-141.0604,1.215912,100.0094,1042.9018,142.5784,1055.266,23.7876,1034.1521,-95.3246
287274,LL,40,1.217988,-21.5412,1.234285,-140.8418,1.217246,99.8563,1045.7253,142.959,1052.8703,23.9742,1036.1549,-95.4972
287274,3LG,0,0.135611,-58.5159,0.135608,-178.3965,0.135193,61.4092,189.6889,105.4212,188.5625,-14.4529,188.3976,-134.7282
287274,3LG,10,1.210241,-22.9124,1.210526,-142.5676,1.203744,97.0496,1038.5148,141.7344,1030.5712,22.1513,1027.2269,-98.3547
287274,3LG,20,1.219489,-21.7359,1.219509,-141.3927,1.212897,98.2145,1046.4426,142.9125,1038.1955,23.325,1035.0677,-97.1903
287274,3LG,30,1.22248,-21.3384,1.222411,-140.9961,1.215865,98.6079,1049.0059,143.3106,1040.6595,23.7212,1037.6111,-96.7969
287274,3LG,40,1.223958,-21.1387,1.223845,-140.7968,1.217333,98.8056,1050.2721,143.5106,1041.8765,23.9202,1038.869,-96.5993
283954,SLG,0,0.336716,-85.8878,1.775855,-147.1253,1.271629,124.2841,695.8981,72.3186,1649.9242,17.5204,1012.9715,-68.4884
283954,SLG,10,1.230194,-25.439,1.258767,-138.3464,1.171633,99.6683,1068.373,139.0282,1069.9721,27.073,989.7342,-96.2284
283954,SLG,20,1.23047,-23.0119,1.242531,-139.2187,1.196271,99.481,1062.3043,141.5458,1056.5423,25.8542,1015.9785,-96.1796
283954,SLG,30,1.230029,-22.1915,1.237495,-139.533,1.204666,99.4427,1059.7902,142.3968,1052.5693,25.4217,1024.8217,-96.1347
283954,SLG,40,1.229705,-21.7793,1.235055,-139.6945,1.208893,99.4281,1058.4392,142.8243,1050.6852,25.2009,1029.2551,-96.1068
283954,LL,0,0.1865,-110.5659,0.282701,-170.4269,1.561791,106.6949,382.9129,34.5597,551.3052,-3.9187,1357.4051,-87.9564
283954,LL,10,1.179798,-25.2686,1.25772,-143.3423,1.203768,101.6448,1015.3596,138.6512,1080.8498,21.8302,1015.1319,-93.4518
283954,LL,20,1.204924,-22.9622,1.244039,-141.7271,1.210913,100.5005,1035.5657,141.3274,1064.035,23.233,1027.0334,-94.7789
283954,LL,30,1.212939,-22.1661,1.238952,-141.2062,1.214101,100.1276,1041.9288,142.2448,1058.0178,23.6762,1031.8238,-95.2004
283954,LL,40,1.216869,-21.7631,1.236317,-140.9495,1.215845,99.9435,1045.032,142.708,1054.941,23.8927,1034.369,-95.4063
283954,3LG,0,0.142942,-60.8154,0.142986,179.2754,0.142561,59.1376,199.936,103.1144,198.8548,-16.779,198.6486,-136.9922
283954,3LG,10,1.208779,-23.3911,1.209299,-143.0421,1.202281,96.5826,1037.2731,141.2542,1029.5436,21.678,1025.948,-98.8216
283954,3LG,20,1.218874,-21.9796,1.219008,-141.6336,1.212267,97.9767,1045.9231,142.6682,1037.7763,23.0848,1034.5142,-97.4281
283954,3LG,30,1.222097,-21.5018,1.222103,-141.1574,1.215469,98.4485,1048.6834,143.1468,1040.4019,23.5603,1037.2624,-96.9564
283954,3LG,40,1.223681,-21.2615,1.223624,-140.9182,1.217045,98.6858,1050.0393,143.3874,1041.6916,23.7992,1038.6153,-96.7192
283956,SLG,0,0.553617,-70.7788,1.712838,-143.9732,1.178841,121.259,963.3073,89.5102,1561.0871,20.8831,920.9385,-73.7489
283956,SLG,10,1.229699,-25.3511,1.258341,-138.3845,1.172561,99.6723,1067.6994,139.1158,1069.677,27.0226,990.6785,-96.2129
283956,SLG,20,1.230321,-22.9892,1.242444,-139.2292,1.196509,99.4831,1062.1126,141.5683,1056.4934,25.8406,1016.2166,-96.1745
283956,SLG,30,1.229959,-22.1813,1.237459,-139.5378,1.204773,99.4438,1059.7016,142.4069,1052.5514,25.4155,1024.928,-96.1322
283956,SLG,40,1.229666,-21.7735,1.235036,-139.6972,1.208953,99.4288,1058.3885,142.8301,1050.6762,25.1973,1029.3152,-96.1054
283956,LL,0,0.404079,-74.2793,0.512784,-172.9237,1.490268,107.3565,622.468,77.9079,832.643,-4.812,1272.3673,-87.903
283956,LL,10,1.18064,-25.1707,1.25635,-143.2962,1.204354,101.5951,1015.9373,138.7656,1079.4867,21.8637,1015.933,-93.5068
283956,LL,20,1.205113,-22.936,1.243673,-141.7168,1.211104,100.4889,1035.6866,141.3576,1063.6781,23.2397,1027.2775,-94.7911
283956,LL,30,1.21302,-22.1541,1.238787,-141.2018,1.214192,100.1225,1041.9792,142.2585,1057.8573,23.6789,1031.9387,-95.2056
283956,LL,40,1.216913,-21.7563,1.236224,-140.947,1.215898,99.9407,1045.0597,142.7158,1054.8504,23.8942,1034.4355,-95.4091
283956,3LG,0,0.402301,-57.7,0.402553,-177.5803,0.401032,62.2481,562.8228,106.2306,559.8333,-13.6305,558.836,-133.8907
283956,3LG,10,1.208838,-23.3506,1.209339,-143.0019,1.202342,96.6221,1037.3223,141.2949,1029.576,21.7181,1026.0026,-98.7821
283956,3LG,20,1.218886,-21.969,1.219015,-141.6231,1.21228,97.9871,1045.9332,142.6788,1037.7823,23.0952,1034.5263,-97.4177
283956,3LG,30,1.222103,-21.4969,1.222107,-141.1527,1.215475,98.4533,1048.6879,143.1516,1040.4047,23.565,1037.2679,-96.9517
283956,3LG,40,1.223684,-21.2588,1.223626,-140.9154,1.217049,98.6885,1050.0421,143.3902,1041.6934,23.802,1038.6187,-96.7165
189963,SLG,0,0.130233,-93.0944,1.841912,-146.8524,1.26749,127.1839,421.159,60.9607,1725.4554,17.3617,1024.1458,-64.3912
189963,SLG,10,1.204086,-28.3616,1.279312,-137.1865,1.139048,99.8461,1053.1766,135.9536,1088.8865,28.6313,954.8807,-96.2719
189963,SLG,20,1.218881,-24.5148,1.25144,-138.5536,1.179336,99.4822,1056.0803,139.9653,1064.2331,26.7336,998.1509,-96.3068
189963,SLG,30,1.222658,-23.2016,1.243072,-139.0716,1.193275,99.4239,1055.9669,141.3346,1057.2408,26.0283,1012.8911,-96.2424
189963,SLG,40,1.224314,-22.5398,1.239094,-139.3418,1.200318,99.4066,1055.6965,142.0247,1054.0096,25.6631,1020.2964,-96.1961
189963,LL,0,0.065368,-162.0833,0.11384,-163.5222,1.617797,106.9506,264.7757,-6.9685,331.3222,-5.8523,1433.8253,-87.6433
189963,LL,10,1.120584,-28.1751,1.248376,-145.2174,1.194589,103.2228,965.1421,135.2279,1080.097,20.1599,1001.4093,-91.5285
189963,LL,20,1.176216,-24.5122,1.240594,-142.6047,1.203324,101.2471,1011.4194,139.5376,1064.5719,22.4764,1017.0514,-93.9026
189963,LL,30,1.194075,-23.2185,1.236868,-141.7756,1.208401,100.6099,1026.1044,141.0368,1058.5108,23.1917,1024.5271,-94.6422
189963,LL,40,1.202833,-22.5593,1.234825,-141.3704,1.211337,100.2986,1033.2739,141.7969,1055.3504,23.5371,1028.6661,-94.9983
189963,3LG,0,0.028013,-15.4238,0.028027,-135.4215,0.028027,104.587,39.1665,148.4843,39.003,28.5089,39.0548,-91.5101
189963,3LG,10,1.168312,-25.007,1.169803,-144.6526,1.162302,95.0245,1002.5665,139.6309,996.0236,20.0722,991.7099,-100.3768
189963,3LG,20,1.198552,-22.831,1.199173,-142.478,1.1921,97.1556,1028.5057,141.8132,1020.9373,22.2432,1017.2375,-98.2483
189963,3LG,30,1.208545,-22.0791,1.208871,-141.7292,1.201997,97.8915,1037.07,142.5671,1029.1667,22.9905,1025.7205,-97.513
189963,3LG,40,1.213517,-21.6981,1.213698,-141.3503,1.206933,98.2644,1041.3304,142.9491,1033.263,23.3686,1029.9515,-97.1403
181977,SLG,0,0.204996,-75.2859,1.810493,-146.1012,1.242007,125.8206,494.42,74.7384,1685.419,18.134,997.2445,-66.4849
181977,SLG,10,1.205958,-28.9438,1.283362,-136.9586,1.132586,99.8777,1056.4521,135.3691,1092.2181,28.9407,948.1531,-96.3107
181977,SLG,20,1.220617,-24.8304,1.253037,-138.408,1.175799,99.4663,1058.486,139.6502,1065.327,26.9246,994.5834,-96.3654
181977,SLG,30,1.224011,-23.4168,1.24401,-138.9678,1.19087,99.4059,1057.7551,141.1201,1057.8094,26.1629,1010.4897,-96.2901
181977,SLG,40,1.225405,-22.7029,1.239746,-139.2615,1.198499,99.3904,1057.1084,141.8622,1054.3713,25.7666,1018.4901,-96.2352
181977,LL,0,0.112278,-71.9442,0.21671,-174.2612,1.594111,106.8219,202.7588,40.5668,462.6456,-9.9711,1406.3072,-87.9898
181977,LL,10,1.115631,-28.7337,1.253654,-145.6413,1.193317,103.5474,961.4236,134.5663,1085.8842,19.7924,998.9532,-91.1437
181977,LL,20,1.1743,-24.8496,1.243873,-142.7964,1.201564,101.4018,1010.1853,139.1511,1067.957,22.3226,1014.6588,-93.7322
181977,LL,30,1.19297,-23.4551,1.239163,-141.8973,1.206984,100.7082,1025.4588,140.7682,1060.838,23.0975,1022.6912,-94.5374
181977,LL,40,1.202076,-22.7409,1.23658,-141.4592,1.210186,100.3701,1032.8609,141.5915,1057.1157,23.4698,1027.2037,-94.9234
181977,3LG,0,0.152438,-48.726,0.152574,-168.704,0.152453,71.3018,213.1569,115.1807,212.315,-4.7661,212.4152,-124.7999
181977,3LG,10,1.167637,-25.3465,1.169347,-144.9895,1.161655,94.696,1001.9951,139.2899,995.6536,19.7364,991.1318,-100.705
181977,3LG,20,1.198302,-23.0225,1.199029,-142.6666,1.191828,96.9701,1028.2991,141.6209,1020.8215,22.0553,1016.9908,-98.434
181977,3LG,30,1.208405,-22.2117,1.2088,-141.8595,1.201835,97.7629,1036.957,142.4341,1029.1098,22.8607,1025.5718,-97.6417
181977,3LG,40,1.213424,-21.7995,1.213655,-141.4497,1.206819,98.166,1041.256,142.8474,1033.2286,23.2695,1029.847,-97.2388
181924,SLG,0,0.029563,-96.9543,1.846486,-149.146,1.341968,127.0516,291.4319,49.4465,1740.6823,14.7979,1103.4228,-64.3365
181924,SLG,10,1.213529,-30.7145,1.294108,-136.2401,1.113202,99.8822,1068.0157,133.6184,1100.8454,29.9017,928.1865,-96.538
181924,SLG,20,1.225745,-25.6655,1.256727,-138.0151,1.166564,99.395,1065.3054,138.8239,1067.7043,27.4357,985.3401,-96.5542
181924,SLG,30,1.227703,-23.9606,1.246071,-138.7015,1.18487,99.3444,1062.5032,140.582,1058.9467,26.5057,1004.5406,-96.4292
181924,SLG,40,1.228271,-23.1056,1.241141,-139.0607,1.194065,99.3394,1060.7402,141.4636,1055.0564,26.0237,1014.114,-96.3439
181924,LL,0,0.014146,-168.6655,0.025606,-169.1435,1.646849,105.0866,196.1321,-19.6114,211.212,-18.5739,1474.0195,-89.7402
181924,LL,10,1.100928,-30.6244,1.271838,-146.7999,1.186906,104.5331,951.2687,132.359,1105.0955,18.8308,988.9488,-89.984
181924,LL,20,1.169534,-25.7929,1.252941,-143.265,1.196135,101.8011,1007.4032,138.0792,1077.157,21.9613,1007.5776,-93.2972
181924,LL,30,1.190391,-24.0776,1.245074,-142.1858,1.203011,100.9483,1024.115,140.066,1066.7588,22.8818,1017.6836,-94.2843
181924,LL,40,1.200365,-23.2046,1.240946,-141.6669,1.207097,100.54,1032.0421,141.0703,1061.461,23.3171,1023.3669,-94.7476
181924,3LG,0,0.006615,-19.7303,0.006622,-139.6979,0.006618,100.306,9.2501,144.175,9.2148,24.2399,9.2207,-95.7951
181924,3LG,10,1.165053,-26.3676,1.167199,-145.9922,1.158958,93.7034,999.8214,138.2659,993.8475,18.7373,988.7639,-101.6983
181924,3LG,20,1.197515,-23.531,1.198391,-143.1631,1.190892,96.4739,1027.6524,141.1114,1020.2791,21.5607,1016.1623,-98.9311
181924,3LG,30,1.208,-22.5497,1.208475,-142.1892,1.201313,97.4324,1036.6293,142.0955,1028.8311,22.5322,1025.1081,-97.9729
181924,3LG,40,1.213166,-22.0525,1.213449,-141.6965,1.206468,97.9183,1041.0495,142.594,1033.0511,23.0237,1029.5338,-97.487
181993,SLG,0,0.000635,-113.799,1.836264,-149.8744,1.364198,126.5024,4334.6484,-112.5467,1734.4059,13.9648,1127.0739,-64.9141
181993,SLG,10,1.213869,-31.6805,1.301643,-135.9937,1.104368,100.0454,329.3465,86.7848,1107.6939,30.2704,918.3905,-96.458
181993,SLG,20,1.226848,-26.1407,1.259725,-137.8574,1.16203,99.4278,652.7432,127.9073,1070.1647,27.6588,980.5071,-96.5708
181993,SLG,30,1.228643,-24.2744,1.247867,-138.5901,1.181862,99.3563,783.8996,134.5049,1060.3427,26.6608,1001.3714,-96.4511
181993,SLG,40,1.229052,-23.3398,1.242408,-138.9751,1.19182,99.3447,850.8245,137.256,1056.0089,26.1419,1011.7619,-96.3641
181993,LL,0,0.000732,-71.6113,0.000996,132.8003,1.649498,104.4472,5390.7466,-70.2196,7010.5196,132.2359,1480.1588,-90.4555
181993,LL,10,1.090692,-31.4699,1.27896,-147.5681,1.187625,105.0389,301.8037,81.0526,317.2151,-27.6587,987.7745,-89.3476
181993,LL,20,1.165679,-26.2514,1.25701,-143.5962,1.194879,102.0285,612.8171,126.5304,654.1911,11.5459,1005.3393,-93.0313
181993,LL,30,1.188144,-24.3875,1.247819,-142.3941,1.201877,101.0894,752.3024,133.748,784.1203,17.0691,1015.9119,-94.1241
181993,LL,40,1.198804,-23.438,1.243005,-141.8184,1.206147,100.6414,825.3323,136.7311,849.5244,19.2833,1021.9485,-94.6343
181993,3LG,0,0.000976,-87.5264,0.000976,152.5056,0.000976,32.4816,7021.9426,-87.5233,7027.277,152.5087,7024.6761,32.4847
181993,3LG,10,1.16325,-26.9127,1.165569,-146.5297,1.157124,93.1699,292.6496,88.3965,286.8849,-32.1816,287.7767,-152.4826
181993,3LG,20,1.196873,-23.8127,1.197806,-143.4394,1.190185,96.1974,622.205,130.2618,614.4233,10.6307,613.1558,-109.9053
181993,3LG,30,1.207637,-22.7393,1.208141,-142.3749,1.200897,97.246,760.7381,136.116,752.743,16.5219,750.817,-104.0122
181993,3LG,40,1.212919,-22.1953,1.21322,-141.8363,1.206178,97.7778,832.3341,138.4689,824.2186,18.8807,822.0088,-101.6511
181994,SLG,0,0.086109,-33.5512,1.811494,-149.1089,1.337537,125.5494,4020.9673,-112.6919,1723.905,13.5684,1136.7427,-65.5595
181994,SLG,10,1.217965,-31.8685,1.302093,-135.7554,1.099641,99.9077,332.8686,83.8786,1115.2863,30.5955,908.7859,-96.3123
181994,SLG,20,1.230024,-26.2348,1.259134,-137.7181,1.159779,99.3219,651.7097,126.9155,1072.9695,27.8728,975.6164,-96.5666
181994,SLG,30,1.231011,-24.3356,1.247264,-138.4947,1.180425,99.2783,783.1891,133.9062,1061.9473,26.8123,998.1413,-96.4617
181994,SLG,40,1.23092,-23.3848,1.241874,-138.903,1.190771,99.2837,850.3285,136.8253,1057.1078,26.2584,1009.3577,-96.3768
181994,LL,0,0.077499,-24.435,0.094761,-148.2863,1.626701,104.5718,4987.1279,-70.4193,6487.5908,132.1599,1480.6761,-90.9129
181994,LL,10,1.089671,-31.7811,1.283595,-147.6329,1.184361,105.2506,301.6194,78.326,323.7613,-30.3912,988.0767,-88.7035
181994,LL,20,1.166508,-26.452,1.259827,-143.5817,1.192042,102.0968,608.7301,125.5226,654.9667,10.7354,1003.487,-92.7506
181994,LL,30,1.189042,-24.5272,1.249716,-142.3731,1.199792,101.1222,749.1849,133.1295,784.6607,16.6084,1014.3216,-93.9542
181994,LL,40,1.199611,-23.5445,1.244423,-141.7985,1.204524,100.6608,822.8951,136.2825,849.9621,18.962,1020.6401,-94.514
181994,3LG,0,0.087818,-23.3587,0.087963,-143.2627,0.087809,96.7091,6494.8705,-87.6547,6501.4507,152.3881,6497.3101,32.3549
181994,3LG,10,1.163594,-27.0119,1.165957,-146.6191,1.157325,93.0778,295.6247,86.0659,290.1204,-34.476,290.7211,-154.7696
181994,3LG,20,1.197365,-23.8766,1.198284,-143.497,1.190559,96.1362,619.9271,129.4942,612.2764,9.8726,610.8572,-110.6602
181994,3LG,30,1.208047,-22.7848,1.20853,-142.4162,1.201219,97.2019,758.836,135.6598,750.926,16.0723,748.8907,-104.4608
181994,3LG,40,1.213258,-22.2305,1.21354,-141.8683,1.206449,97.7434,830.7933,138.1424,822.74,18.5593,820.4452,-101.9722
181891,SLG,0,0.285802,-45.5801,1.755455,-146.4236,1.251985,123.2488,519.1288,99.1364,1621.36,17.4024,1015.6174,-70.2741
181891,SLG,10,1.21701,-30.9059,1.295752,-135.9611,1.107048,99.7716,1072.1146,133.4585,1101.6641,30.2288,922.6374,-96.7286
181891,SLG,20,1.230095,-25.8164,1.25638,-137.809,1.162944,99.2613,1069.8218,138.7041,1066.6858,27.6713,982.2704,-96.7462
181891,SLG,30,1.231237,-24.0697,1.24548,-138.5518,1.182421,99.2371,1066.0976,140.4971,1057.8516,26.6746,1002.5171,-96.5782
181891,SLG,40,1.231164,-23.1901,1.240549,-138.9444,1.192228,99.2521,1063.6576,141.3988,1054.0671,26.1539,1012.6184,-96.4634
181891,LL,0,0.239134,-37.6234,0.308423,-157.2639,1.563822,105.5258,254.2368,106.1227,553.9801,2.497,1377.9027,-90.0297
181891,LL,10,1.098943,-30.7991,1.275403,-146.9584,1.185356,104.8011,949.9187,132.1301,1108.7754,18.7035,986.9133,-89.681
181891,LL,20,1.170277,-26.0583,1.256992,-143.2842,1.192592,101.9239,1008.8097,137.7863,1080.7583,21.9861,1003.7211,-93.1849
181891,LL,30,1.191481,-24.2869,1.24811,-142.1792,1.200083,101.0154,1025.6776,139.8398,1069.3659,22.9238,1014.5749,-94.2328
181891,LL,40,1.201429,-23.3726,1.243321,-141.654,1.204705,100.5834,1033.4653,140.8902,1063.4643,23.3586,1020.8567,-94.7192
181891,3LG,0,0.273737,-33.2739,0.274177,-153.146,0.273448,86.7839,382.9129,130.6361,381.4335,10.8092,380.9412,-109.3387
181891,3LG,10,1.165802,-26.4547,1.167883,-146.0732,1.159583,93.6141,1000.4771,138.1795,994.4143,18.6567,989.3004,-101.7886
181891,3LG,20,1.198403,-23.6248,1.199231,-143.2511,1.191655,96.3797,1028.4281,141.0181,1020.9815,21.4732,1016.8125,-99.0261
181891,3LG,30,1.208738,-22.6233,1.209169,-142.2584,1.201951,97.3584,1037.2728,142.0223,1029.4123,22.4634,1025.6527,-98.0476
181891,3LG,40,1.213778,-22.1118,1.214024,-141.7524,1.206999,97.8585,1041.5834,142.535,1033.5324,22.9681,1029.988,-97.5474
255335,SLG,0,0.222403,-41.5583,1.779302,-147.4354,1.2834,124.2739,3544.7118,-110.9215,1707.7738,13.71,1129.5459,-66.3211
255335,SLG,10,1.222571,-32.2459,1.304481,-135.3693,1.091069,99.7511,330.9723,78.6626,1130.0207,31.0852,892.2557,-95.9276
255335,SLG,20,1.234495,-26.4514,1.258971,-137.4696,1.155303,99.1683,644.5226,125.216,1078.7193,28.2425,966.6321,-96.5186
255335,SLG,30,1.234498,-24.4825,1.246768,-138.3203,1.177486,99.1598,778.0644,132.8731,1065.2833,27.0825,992.112,-96.4595
255335,SLG,40,1.233726,-23.4954,1.241348,-138.7696,1.188597,99.189,846.4418,136.0783,1059.4071,26.469,1004.8375,-96.3858
255335,LL,0,0.219588,-30.9523,0.251045,-159.294,1.591683,105.0389,4247.1172,-68.3934,5613.2139,134.6986,1475.8333,-91.2264
255335,LL,10,1.084904,-32.2779,1.290251,-147.8325,1.180566,105.6678,293.5197,73.4823,327.4514,-35.3457,991.5928,-87.5642
255335,LL,20,1.166254,-26.824,1.264503,-143.609,1.187522,102.2595,596.1751,123.8294,651.3355,9.3469,1000.9121,-92.2115
255335,LL,30,1.189497,-24.7946,1.252942,-142.3715,1.196309,101.2091,739.6912,132.0787,782.0643,15.8199,1011.7701,-93.6232
255335,LL,40,1.2002,-23.7511,1.246853,-141.7898,1.201763,100.7169,815.4334,135.5149,847.989,18.4118,1018.4478,-94.2786
255335,3LG,0,0.2444,-33.3282,0.244942,-153.1912,0.244268,86.7599,5572.5437,-85.2336,5581.289,154.8228,5574.5246,34.7818
255335,3LG,10,1.162853,-27.1826,1.165351,-146.774,1.1564,92.9213,293.724,81.9068,288.7464,-38.5883,288.8742,-158.8675
255335,3LG,20,1.197443,-24.0041,1.198369,-143.6134,1.190449,96.0148,611.0227,128.2289,603.6554,8.6255,601.9778,-111.9018
255335,3LG,30,1.208227,-22.8789,1.208694,-142.5026,1.201255,97.1111,751.834,134.9036,744.1115,15.3289,741.8863,-105.2025
255335,3LG,40,1.213445,-22.3045,1.213707,-141.9364,1.206521,97.6717,825.1846,137.5984,817.2694,18.0249,814.8259,-102.506
182030,SLG,0,0.257939,-45.4483,1.770583,-146.818,1.264131,123.91,3439.6139,-109.257,1695.8391,14.4496,1106.1486,-66.73
182030,SLG,10,1.221518,-32.1528,1.304185,-135.4195,1.092173,99.7724,328.5331,80.1091,1129.6947,31.0186,893.5012,-95.8938
182030,SLG,20,1.234149,-26.4295,1.258979,-137.4836,1.155554,99.1769,645.1273,125.4091,1078.7371,28.2238,966.9109,-96.5059
182030,SLG,30,1.234333,-24.4731,1.246786,-138.3266,1.177592,99.1641,778.3823,132.9436,1065.3074,27.0742,992.2284,-96.4534
182030,SLG,40,1.233631,-23.4902,1.241362,-138.7731,1.188654,99.1915,846.6284,136.1147,1059.4253,26.4643,1004.9006,-96.3823
182030,LL,0,0.253319,-32.376,0.298627,-162.6649,1.582265,105.3259,4054.5357,-67.543,5377.1963,136.1563,1463.9495,-90.8753
182030,LL,10,1.085441,-32.1451,1.288501,-147.7854,1.181397,105.6056,292.5705,74.9837,324.1768,-34.0276,992.5563,-87.6489
182030,LL,20,1.166237,-26.7894,1.264058,-143.6032,1.187849,102.2495,597.2003,124.0237,651.6172,9.5121,1001.2941,-92.2246
182030,LL,30,1.189466,-24.7793,1.25275,-142.3698,1.196464,101.2057,740.2088,132.1493,782.2286,15.8783,1011.9511,-93.6274
182030,LL,40,1.200176,-23.7426,1.246748,-141.789,1.201852,100.7153,815.7357,135.5513,848.088,18.4414,1018.5516,-94.2805
182030,3LG,0,0.288943,-35.3978,0.289628,-155.2558,0.288772,84.6934,5323.5067,-84.0127,5332.8526,156.047,5325.3911,36.0056
182030,3LG,10,1.162775,-27.1297,1.165239,-146.7223,1.156332,92.9721,292.1356,83.1718,287.0296,-37.311,287.2145,-157.6022
182030,3LG,20,1.197395,-23.9903,1.198317,-143.6001,1.190409,96.0282,611.7576,128.3835,604.3814,8.781,602.7077,-111.747
182030,3LG,30,1.208201,-22.8727,1.208668,-142.4966,1.201233,97.1172,752.2184,134.9591,744.4926,15.3845,742.2696,-105.1471
182030,3LG,40,1.213429,-22.301,1.21369,-141.9331,1.206508,97.6751,825.4126,137.6268,817.4956,18.0534,815.0535,-102.4776
182153,SLG,0,0.434404,-47.2714,1.742615,-144.3502,1.189676,122.5505,2867.4942,-105.3753,1699.4496,14.5407,1103.9936,-66.5159
182153,SLG,10,1.222692,-33.6709,1.32168,-134.5547,1.06874,100.1122,307.009,60.7659,1175.9987,31.9294,853.6901,-93.9713
182153,SLG,20,1.2413,-27.2392,1.262574,-136.8255,1.141554,98.9262,603.5771,120.657,1096.782,29.1182,942.6667,-96.203
182153,SLG,30,1.240494,-25.0293,1.248097,-137.8509,1.168201,98.9449,748.6358,130.2118,1076.0552,27.7615,975.5858,-96.349
182153,SLG,40,1.238789,-23.9116,1.241893,-138.4045,1.181635,99.008,823.8683,134.1775,1066.9247,27.0118,992.303,-96.3395
182153,LL,0,0.462334,-35.8917,0.495147,-167.4154,1.539499,105.9099,3079.9562,-59.4468,4351.7295,143.7132,1470.4422,-91.4773
182153,LL,10,1.065167,-32.9858,1.2978,-148.8953,1.183447,106.7509,266.4932,63.8806,318.3348,-53.1306,1017.3397,-85.1637
182153,LL,20,1.158058,-27.8579,1.275738,-143.9449,1.178473,102.8827,542.7612,119.5541,620.5724,5.408,998.3836,-90.658
182153,LL,30,1.18567,-25.5649,1.260953,-142.5359,1.188452,101.5707,699.2005,129.4947,760.3325,13.7198,1006.954,-92.6419
182153,LL,40,1.19802,-24.3549,1.252939,-141.8894,1.195272,100.9623,783.4779,133.6366,831.4024,16.9866,1013.7583,-93.5749
182153,3LG,0,0.50304,-40.8559,0.504709,-160.6366,0.502237,79.27,4194.6834,-75.8717,4207.1435,164.2071,4195.8854,44.1606
182153,3LG,10,1.156496,-27.6892,1.159712,-147.2609,1.150137,92.4588,274.4737,67.5463,271.4616,-53.0308,270.592,-173.1025
182153,3LG,20,1.194603,-24.4029,1.195796,-143.988,1.187333,95.641,568.9717,124.9569,562.4204,5.3717,560.4249,-115.1091
182153,3LG,30,1.20652,-23.1786,1.207103,-142.7839,1.199286,96.8266,719.3421,133.0607,712.173,13.5079,709.67,-107.0038
182153,3LG,40,1.21225,-22.542,1.212572,-142.1597,1.205105,97.4447,799.2598,136.298,791.7559,16.7431,789.0793,-103.7765
182158,SLG,0,0.491447,-45.5115,1.725981,-143.7352,1.172506,121.6939,2655.1462,-104.9668,1691.2126,14.4255,1106.4911,-66.9629
182158,SLG,10,1.222582,-34.167,1.328714,-134.2729,1.06068,100.3065,303.8781,54.5883,1194.6426,32.1492,840.3092,-93.0303
182158,SLG,20,1.244356,-27.4986,1.263698,-136.5826,1.136511,98.8214,592.2978,118.9322,1104.0348,29.4301,933.5847,-96.0531
182158,SLG,30,1.2432,-25.206,1.248325,-137.6734,1.164851,98.8506,740.6615,129.1975,1080.3137,28.0125,969.286,-96.2974
182158,SLG,40,1.241077,-24.0444,1.241845,-138.2668,1.179154,98.9283,817.8508,133.4507,1069.8553,27.215,987.5249,-96.3185
182158,LL,0,0.518384,-35.0365,0.552594,-165.4404,1.522609,105.9305,2804.7971,-58.0118,4014.193,144.8831,1466.6086,-91.8059
182158,LL,10,1.064203,-32.6706,1.294895,-149.3347,1.189147,106.8985,277.0056,68.5291,320.4923,-59.3035,1033.4183,-84.7666
182158,LL,20,1.155415,-28.2157,1.280377,-144.0548,1.175123,103.1219,526.811,118.0408,613.3393,3.8265,998.5008,-90.0442
182158,LL,30,1.184736,-25.837,1.264279,-142.5775,1.185374,101.7033,687.0601,128.5389,755.3835,12.88,1005.4899,-92.2523
182158,LL,40,1.197673,-24.5689,1.255452,-141.908,1.192698,101.0485,773.9188,132.9299,827.7141,16.4198,1012.1309,-93.2975
182158,3LG,0,0.560065,-39.5126,0.562091,-159.2567,0.55892,80.6286,3849.4654,-74.5443,3862.4797,165.5476,3850.3363,45.492
182158,3LG,10,1.154859,-27.837,1.158302,-147.4059,1.148572,92.3227,273.5559,63.2146,271.1817,-57.376,269.9367,-177.3954
182158,3LG,20,1.194039,-24.5281,1.195323,-144.1054,1.186671,95.5237,557.9491,123.7359,551.6602,4.1521,549.5062,-116.3102
182158,3LG,30,1.206257,-23.2741,1.206871,-142.8731,1.198922,96.7357,710.5271,132.3595,703.5308,12.8125,700.8905,-107.6917
182158,3LG,40,1.212103,-22.6182,1.212435,-142.2309,1.20487,97.3715,792.1457,135.7992,784.7668,16.2499,781.9748,-104.2659
182162,SLG,0,0.539342,-43.8557,1.710658,-143.2714,1.160358,120.8961,2471.3072,-104.937,1682.8751,14.2414,1110.9412,-67.4225
182162,SLG,10,1.222034,-34.6641,1.336238,-134.0052,1.052583,100.5345,302.127,48.3821,1213.8376,32.3154,827.6661,-91.9874
182162,SLG,20,1.247429,-27.758,1.264932,-136.3372,1.13137,98.7174,581.4771,117.164,1111.6298,29.7335,924.3982,-95.8815
182162,SLG,30,1.245984,-25.3813,1.248564,-137.4931,1.161453,98.7538,733.0879,128.1613,1084.7509,28.263,962.8745,-96.2383
182162,SLG,40,1.243448,-24.1753,1.241777,-138.1269,1.176649,98.8459,812.1877,132.7089,1072.8904,27.4197,982.6569,-96.2943
182162,LL,0,0.564738,-34.2594,0.598899,-163.6108,1.507848,105.8891,2579.7268,-56.8897,3732.2088,145.6321,1462.6305,-92.1479
182162,LL,10,1.06346,-32.3617,1.291801,-149.7576,1.194836,107.0339,289.588,72.6517,324.6643,-65.173,1049.653,-84.4228
182162,LL,20,1.152559,-28.5685,1.285185,-144.1742,1.171928,103.3754,511.3293,116.5553,606.7151,2.1581,999.3131,-89.412
182162,LL,30,1.183768,-26.1092,1.267761,-142.6203,1.182276,101.8426,675.2848,127.5813,750.9579,12.0014,1004.2461,-91.8471
182162,LL,40,1.197351,-24.7835,1.258079,-141.9254,1.190076,101.1377,764.6726,132.2164,824.4712,15.8304,1010.5815,-93.0095
182162,3LG,0,0.605893,-38.2869,0.608205,-157.9988,0.604398,81.8655,3564.9659,-73.6038,3578.202,166.5002,3565.5876,46.435
182162,3LG,10,1.153309,-27.9765,1.156977,-147.5444,1.147122,92.194,274.1318,59.12,272.3882,-61.4766,270.7796,178.5546
182162,3LG,20,1.193544,-24.6497,1.194929,-144.2192,1.186083,95.4104,547.799,122.4927,541.7848,2.9089,539.4693,-117.5322
182162,3LG,30,1.206054,-23.3673,1.206703,-142.9599,1.198616,96.6472,702.3037,131.6447,695.4881,12.1034,692.7029,-108.3924
182162,3LG,40,1.212009,-22.6926,1.212351,-142.3003,1.204685,97.3001,785.4833,135.2903,778.2339,15.7467,775.3197,-104.7647
